LTspice 24.0.12 for Windows
Circuit: * C:\Git_repos\Plasma_Flame_Radio\simulations\LTspice\AMhz10-SO_cap.asc
Start Time: Sat Aug 10 15:06:08 2024
solver = Normal
Maximum thread count: 12
tnom = 27
temp = 27
method = modified trap
.OP point found by inspection.
Total elapsed time: 8.666 seconds.

